/*--------------------------------*- C++ -*----------------------------------*\
| =========                 |                                                 |
| \\      /  F ield         | OpenFOAM: The Open Source CFD Toolbox           |
|  \\    /   O peration     | Version:  2.3.1                                 |
|   \\  /    A nd           | Web:      www.OpenFOAM.org                      |
|    \\/     M anipulation  |                                                 |
\*---------------------------------------------------------------------------*/
FoamFile
{
    version     2.0;
    format      ascii;
    class       polyBoundaryMesh;
    location    "constant/polyMesh";
    object      boundary;
}
// * * * * * * * * * * * * * * * * * * * * * * * * * * * * * * * * * * * * * //

5
(
    leftWall
    {
        type            patch;
        nFaces          256;
        startFace       130560;
    }
    rightWall
    {
        type            patch;
        nFaces          256;
        startFace       130816;
    }
    lowerWall
    {
        type            patch;
        nFaces          256;
        startFace       131072;
    }
    upperWall
    {
        type            patch;
        nFaces          256;
        startFace       131328;
    }
    frontAndBack
    {
        type            empty;
        inGroups        1(empty);
        nFaces          131072;
        startFace       131584;
    }
)

// ************************************************************************* //
