/*--------------------------------*- C++ -*----------------------------------*\
| =========                 |                                                 |
| \\      /  F ield         | foam-extend: Open Source CFD                    |
|  \\    /   O peration     | Version:     3.2                                |
|   \\  /    A nd           | Web:         http://www.foam-extend.org         |
|    \\/     M anipulation  |                                                 |
\*---------------------------------------------------------------------------*/
FoamFile
{
    version     2.0;
    format      ascii;
    class       dictionary;
    location    "system";
    object      setFieldsDict;
}
// * * * * * * * * * * * * * * * * * * * * * * * * * * * * * * * * * * * * * //

defaultFieldValues
(
    volScalarFieldValue phin 0
);

regions
(
    boxToCell
    {
        box (0 0 0) (2 0.2 0.1);
        fieldValues
        (
            volScalarFieldValue phin 1e-3
        );
    }
 boxToCell
    {
        box (0.8 0.2 0) (1.2 0.4 0.1);
        fieldValues
        (
            volScalarFieldValue phin 1e-3
        );
    }
);





// ************************************************************************* //
